Circuit: * Z:\home\sven\synth\lfo\simulation\LFO.asc

WARNING: Node NC_01 is floating.
WARNING: Node NC_02 is floating.

WARNING: Less than two connections to node NC_01.  This node is used by C2.
WARNING: Less than two connections to node NC_02.  This node is used by C3.
WARNING: Less than two connections to node TRI.  This node is used by R17.
WARNING: Less than two connections to node WEIRD.  This node is used by R18.
Direct Newton iteration failed to find .op point.  (Use ".option noopiter" to skip.)
Starting Gmin stepping
Gmin = 10
Gmin = 1.07374
Gmin = 0.115292
Gmin = 0.0123794
Gmin = 0.00132923
Gmin = 0.000142725
Gmin = 1.5325e-005
Gmin = 1.6455e-006
Gmin = 1.76685e-007
Gmin = 1.89714e-008
Gmin = 2.03704e-009
Gmin = 2.18725e-010
Gmin = 2.34854e-011
Gmin = 2.52173e-012
Gmin = 2.70769e-013
Gmin = 0
Gmin stepping succeeded in finding the operating point.


Date: Fri May 23 20:18:52 2025
Total elapsed time: 0.159 seconds.

tnom = 27
temp = 27
method = modified trap
totiter = 8577
traniter = 8227
tranpoints = 2853
accept = 2223
rejected = 630
matrix size = 28
fillins = 12
solver = Normal
Matrix Compiler1:     140 opcodes  1.4/[1.3]/1.4
Matrix Compiler2:     236 opcodes  1.3/[1.3]/1.5

